*SPEF "ieee 1481-1999"
*DESIGN "user_proj_example"
*DATE "11:11:11 Fri 11 11, 1111"
*VENDOR "OpenRCX"
*PROGRAM "Parallel Extraction"
*VERSION "1.0"
*DESIGN_FLOW "NAME_SCOPE LOCAL" "PIN_CAP NONE"
*DIVIDER /
*DELIMITER :
*BUS_DELIMITER []
*T_UNIT 1 NS
*C_UNIT 1 PF
*R_UNIT 1 OHM
*L_UNIT 1 HENRY

*NAME_MAP
*1 io_in[0]
*2 io_in[10]
*3 io_in[11]
*4 io_in[12]
*5 io_in[13]
*6 io_in[14]
*7 io_in[15]
*8 io_in[16]
*9 io_in[17]
*10 io_in[18]
*11 io_in[19]
*12 io_in[1]
*13 io_in[20]
*14 io_in[21]
*15 io_in[22]
*16 io_in[23]
*17 io_in[24]
*18 io_in[25]
*19 io_in[26]
*20 io_in[27]
*21 io_in[28]
*22 io_in[29]
*23 io_in[2]
*24 io_in[30]
*25 io_in[31]
*26 io_in[32]
*27 io_in[33]
*28 io_in[34]
*29 io_in[35]
*30 io_in[36]
*31 io_in[37]
*32 io_in[3]
*33 io_in[4]
*34 io_in[5]
*35 io_in[6]
*36 io_in[7]
*37 io_in[8]
*38 io_in[9]
*39 io_oeb[0]
*40 io_oeb[10]
*41 io_oeb[11]
*42 io_oeb[12]
*43 io_oeb[13]
*44 io_oeb[14]
*45 io_oeb[15]
*46 io_oeb[16]
*47 io_oeb[17]
*48 io_oeb[18]
*49 io_oeb[19]
*50 io_oeb[1]
*51 io_oeb[20]
*52 io_oeb[21]
*53 io_oeb[22]
*54 io_oeb[23]
*55 io_oeb[24]
*56 io_oeb[25]
*57 io_oeb[26]
*58 io_oeb[27]
*59 io_oeb[28]
*60 io_oeb[29]
*61 io_oeb[2]
*62 io_oeb[30]
*63 io_oeb[31]
*64 io_oeb[32]
*65 io_oeb[33]
*66 io_oeb[34]
*67 io_oeb[35]
*68 io_oeb[36]
*69 net299
*70 io_oeb[3]
*71 io_oeb[4]
*72 io_oeb[5]
*73 io_oeb[6]
*74 io_oeb[7]
*75 io_oeb[8]
*76 io_oeb[9]
*77 io_out[0]
*78 io_out[10]
*79 io_out[11]
*80 io_out[12]
*81 io_out[13]
*82 io_out[14]
*83 io_out[15]
*84 io_out[16]
*85 io_out[17]
*86 io_out[18]
*87 io_out[19]
*88 io_out[1]
*89 io_out[20]
*90 io_out[21]
*91 io_out[22]
*92 io_out[23]
*93 io_out[24]
*94 io_out[25]
*95 io_out[26]
*96 io_out[27]
*97 io_out[28]
*98 io_out[29]
*99 io_out[2]
*100 io_out[30]
*101 io_out[31]
*102 net300
*103 net301
*104 net302
*105 net303
*106 net304
*107 net305
*108 io_out[3]
*109 io_out[4]
*110 io_out[5]
*111 io_out[6]
*112 io_out[7]
*113 io_out[8]
*114 io_out[9]
*115 net306
*116 net307
*117 net308
*118 la_data_in[0]
*119 la_data_in[100]
*120 la_data_in[101]
*121 la_data_in[102]
*122 la_data_in[103]
*123 la_data_in[104]
*124 la_data_in[105]
*125 la_data_in[106]
*126 la_data_in[107]
*127 la_data_in[108]
*128 la_data_in[109]
*129 la_data_in[10]
*130 la_data_in[110]
*131 la_data_in[111]
*132 la_data_in[112]
*133 la_data_in[113]
*134 la_data_in[114]
*135 la_data_in[115]
*136 la_data_in[116]
*137 la_data_in[117]
*138 la_data_in[118]
*139 la_data_in[119]
*140 la_data_in[11]
*141 la_data_in[120]
*142 la_data_in[121]
*143 la_data_in[122]
*144 la_data_in[123]
*145 la_data_in[124]
*146 la_data_in[125]
*147 la_data_in[126]
*148 la_data_in[127]
*149 la_data_in[12]
*150 la_data_in[13]
*151 la_data_in[14]
*152 la_data_in[15]
*153 la_data_in[16]
*154 la_data_in[17]
*155 la_data_in[18]
*156 la_data_in[19]
*157 la_data_in[1]
*158 la_data_in[20]
*159 la_data_in[21]
*160 la_data_in[22]
*161 la_data_in[23]
*162 la_data_in[24]
*163 la_data_in[25]
*164 la_data_in[26]
*165 la_data_in[27]
*166 la_data_in[28]
*167 la_data_in[29]
*168 la_data_in[2]
*169 la_data_in[30]
*170 la_data_in[31]
*171 la_data_in[32]
*172 la_data_in[33]
*173 la_data_in[34]
*174 la_data_in[35]
*175 la_data_in[36]
*176 la_data_in[37]
*177 la_data_in[38]
*178 la_data_in[39]
*179 la_data_in[3]
*180 la_data_in[40]
*181 la_data_in[41]
*182 la_data_in[42]
*183 la_data_in[43]
*184 la_data_in[44]
*185 la_data_in[45]
*186 la_data_in[46]
*187 la_data_in[47]
*188 la_data_in[48]
*189 la_data_in[49]
*190 la_data_in[4]
*191 la_data_in[50]
*192 la_data_in[51]
*193 la_data_in[52]
*194 la_data_in[53]
*195 la_data_in[54]
*196 la_data_in[55]
*197 la_data_in[56]
*198 la_data_in[57]
*199 la_data_in[58]
*200 la_data_in[59]
*201 la_data_in[5]
*202 la_data_in[60]
*203 la_data_in[61]
*204 la_data_in[62]
*205 la_data_in[63]
*206 la_data_in[64]
*207 la_data_in[65]
*208 la_data_in[66]
*209 la_data_in[67]
*210 la_data_in[68]
*211 la_data_in[69]
*212 la_data_in[6]
*213 la_data_in[70]
*214 la_data_in[71]
*215 la_data_in[72]
*216 la_data_in[73]
*217 la_data_in[74]
*218 la_data_in[75]
*219 la_data_in[76]
*220 la_data_in[77]
*221 la_data_in[78]
*222 la_data_in[79]
*223 la_data_in[7]
*224 la_data_in[80]
*225 la_data_in[81]
*226 la_data_in[82]
*227 la_data_in[83]
*228 la_data_in[84]
*229 la_data_in[85]
*230 la_data_in[86]
*231 la_data_in[87]
*232 la_data_in[88]
*233 la_data_in[89]
*234 la_data_in[8]
*235 la_data_in[90]
*236 la_data_in[91]
*237 la_data_in[92]
*238 la_data_in[93]
*239 la_data_in[94]
*240 la_data_in[95]
*241 la_data_in[96]
*242 la_data_in[97]
*243 la_data_in[98]
*244 la_data_in[99]
*245 la_data_in[9]
*246 net309
*247 net393
*248 net394
*249 net395
*250 net396
*251 net397
*252 net398
*253 net399
*254 net400
*255 net401
*256 net402
*257 net319
*258 net403
*259 net404
*260 net405
*261 net406
*262 net407
*263 net408
*264 net409
*265 net410
*266 net411
*267 net412
*268 net320
*269 net413
*270 net414
*271 net415
*272 net416
*273 net417
*274 net418
*275 net419
*276 net420
*277 net321
*278 net322
*279 net323
*280 net324
*281 net325
*282 net326
*283 net327
*284 net328
*285 net310
*286 net329
*287 net330
*288 net331
*289 net332
*290 net333
*291 net334
*292 net335
*293 net336
*294 net337
*295 net338
*296 net311
*297 net339
*298 net340
*299 la_data_out[32]
*300 la_data_out[33]
*301 la_data_out[34]
*302 la_data_out[35]
*303 la_data_out[36]
*304 la_data_out[37]
*305 la_data_out[38]
*306 la_data_out[39]
*307 net312
*308 la_data_out[40]
*309 la_data_out[41]
*310 la_data_out[42]
*311 la_data_out[43]
*312 la_data_out[44]
*313 la_data_out[45]
*314 la_data_out[46]
*315 la_data_out[47]
*316 net341
*317 net342
*318 net313
*319 net343
*320 net344
*321 net345
*322 net346
*323 net347
*324 net348
*325 net349
*326 net350
*327 net351
*328 net352
*329 net314
*330 net353
*331 net354
*332 net355
*333 net356
*334 net357
*335 net358
*336 net359
*337 net360
*338 net361
*339 net362
*340 net315
*341 net363
*342 net364
*343 net365
*344 net366
*345 net367
*346 net368
*347 net369
*348 net370
*349 net371
*350 net372
*351 net316
*352 net373
*353 net374
*354 net375
*355 net376
*356 net377
*357 net378
*358 net379
*359 net380
*360 net381
*361 net382
*362 net317
*363 net383
*364 net384
*365 net385
*366 net386
*367 net387
*368 net388
*369 net389
*370 net390
*371 net391
*372 net392
*373 net318
*374 la_oenb[0]
*375 la_oenb[100]
*376 la_oenb[101]
*377 la_oenb[102]
*378 la_oenb[103]
*379 la_oenb[104]
*380 la_oenb[105]
*381 la_oenb[106]
*382 la_oenb[107]
*383 la_oenb[108]
*384 la_oenb[109]
*385 la_oenb[10]
*386 la_oenb[110]
*387 la_oenb[111]
*388 la_oenb[112]
*389 la_oenb[113]
*390 la_oenb[114]
*391 la_oenb[115]
*392 la_oenb[116]
*393 la_oenb[117]
*394 la_oenb[118]
*395 la_oenb[119]
*396 la_oenb[11]
*397 la_oenb[120]
*398 la_oenb[121]
*399 la_oenb[122]
*400 la_oenb[123]
*401 la_oenb[124]
*402 la_oenb[125]
*403 la_oenb[126]
*404 la_oenb[127]
*405 la_oenb[12]
*406 la_oenb[13]
*407 la_oenb[14]
*408 la_oenb[15]
*409 la_oenb[16]
*410 la_oenb[17]
*411 la_oenb[18]
*412 la_oenb[19]
*413 la_oenb[1]
*414 la_oenb[20]
*415 la_oenb[21]
*416 la_oenb[22]
*417 la_oenb[23]
*418 la_oenb[24]
*419 la_oenb[25]
*420 la_oenb[26]
*421 la_oenb[27]
*422 la_oenb[28]
*423 la_oenb[29]
*424 la_oenb[2]
*425 la_oenb[30]
*426 la_oenb[31]
*427 la_oenb[32]
*428 la_oenb[33]
*429 la_oenb[34]
*430 la_oenb[35]
*431 la_oenb[36]
*432 la_oenb[37]
*433 la_oenb[38]
*434 la_oenb[39]
*435 la_oenb[3]
*436 la_oenb[40]
*437 la_oenb[41]
*438 la_oenb[42]
*439 la_oenb[43]
*440 la_oenb[44]
*441 la_oenb[45]
*442 la_oenb[46]
*443 la_oenb[47]
*444 la_oenb[48]
*445 la_oenb[49]
*446 la_oenb[4]
*447 la_oenb[50]
*448 la_oenb[51]
*449 la_oenb[52]
*450 la_oenb[53]
*451 la_oenb[54]
*452 la_oenb[55]
*453 la_oenb[56]
*454 la_oenb[57]
*455 la_oenb[58]
*456 la_oenb[59]
*457 la_oenb[5]
*458 la_oenb[60]
*459 la_oenb[61]
*460 la_oenb[62]
*461 la_oenb[63]
*462 la_oenb[64]
*463 la_oenb[65]
*464 la_oenb[66]
*465 la_oenb[67]
*466 la_oenb[68]
*467 la_oenb[69]
*468 la_oenb[6]
*469 la_oenb[70]
*470 la_oenb[71]
*471 la_oenb[72]
*472 la_oenb[73]
*473 la_oenb[74]
*474 la_oenb[75]
*475 la_oenb[76]
*476 la_oenb[77]
*477 la_oenb[78]
*478 la_oenb[79]
*479 la_oenb[7]
*480 la_oenb[80]
*481 la_oenb[81]
*482 la_oenb[82]
*483 la_oenb[83]
*484 la_oenb[84]
*485 la_oenb[85]
*486 la_oenb[86]
*487 la_oenb[87]
*488 la_oenb[88]
*489 la_oenb[89]
*490 la_oenb[8]
*491 la_oenb[90]
*492 la_oenb[91]
*493 la_oenb[92]
*494 la_oenb[93]
*495 la_oenb[94]
*496 la_oenb[95]
*497 la_oenb[96]
*498 la_oenb[97]
*499 la_oenb[98]
*500 la_oenb[99]
*501 la_oenb[9]
*504 wb_clk_i
*505 wb_rst_i
*506 wbs_ack_o
*507 wbs_adr_i[0]
*508 wbs_adr_i[10]
*509 wbs_adr_i[11]
*510 wbs_adr_i[12]
*511 wbs_adr_i[13]
*512 wbs_adr_i[14]
*513 wbs_adr_i[15]
*514 wbs_adr_i[16]
*515 wbs_adr_i[17]
*516 wbs_adr_i[18]
*517 wbs_adr_i[19]
*518 wbs_adr_i[1]
*519 wbs_adr_i[20]
*520 wbs_adr_i[21]
*521 wbs_adr_i[22]
*522 wbs_adr_i[23]
*523 wbs_adr_i[24]
*524 wbs_adr_i[25]
*525 wbs_adr_i[26]
*526 wbs_adr_i[27]
*527 wbs_adr_i[28]
*528 wbs_adr_i[29]
*529 wbs_adr_i[2]
*530 wbs_adr_i[30]
*531 wbs_adr_i[31]
*532 wbs_adr_i[3]
*533 wbs_adr_i[4]
*534 wbs_adr_i[5]
*535 wbs_adr_i[6]
*536 wbs_adr_i[7]
*537 wbs_adr_i[8]
*538 wbs_adr_i[9]
*539 wbs_cyc_i
*540 wbs_dat_i[0]
*541 wbs_dat_i[10]
*542 wbs_dat_i[11]
*543 wbs_dat_i[12]
*544 wbs_dat_i[13]
*545 wbs_dat_i[14]
*546 wbs_dat_i[15]
*547 wbs_dat_i[16]
*548 wbs_dat_i[17]
*549 wbs_dat_i[18]
*550 wbs_dat_i[19]
*551 wbs_dat_i[1]
*552 wbs_dat_i[20]
*553 wbs_dat_i[21]
*554 wbs_dat_i[22]
*555 wbs_dat_i[23]
*556 wbs_dat_i[24]
*557 wbs_dat_i[25]
*558 wbs_dat_i[26]
*559 wbs_dat_i[27]
*560 wbs_dat_i[28]
*561 wbs_dat_i[29]
*562 wbs_dat_i[2]
*563 wbs_dat_i[30]
*564 wbs_dat_i[31]
*565 wbs_dat_i[3]
*566 wbs_dat_i[4]
*567 wbs_dat_i[5]
*568 wbs_dat_i[6]
*569 wbs_dat_i[7]
*570 wbs_dat_i[8]
*571 wbs_dat_i[9]
*572 wbs_dat_o[0]
*573 wbs_dat_o[10]
*574 wbs_dat_o[11]
*575 wbs_dat_o[12]
*576 wbs_dat_o[13]
*577 wbs_dat_o[14]
*578 wbs_dat_o[15]
*579 wbs_dat_o[16]
*580 wbs_dat_o[17]
*581 wbs_dat_o[18]
*582 wbs_dat_o[19]
*583 wbs_dat_o[1]
*584 wbs_dat_o[20]
*585 wbs_dat_o[21]
*586 wbs_dat_o[22]
*587 wbs_dat_o[23]
*588 wbs_dat_o[24]
*589 wbs_dat_o[25]
*590 wbs_dat_o[26]
*591 wbs_dat_o[27]
*592 wbs_dat_o[28]
*593 wbs_dat_o[29]
*594 wbs_dat_o[2]
*595 wbs_dat_o[30]
*596 wbs_dat_o[31]
*597 wbs_dat_o[3]
*598 wbs_dat_o[4]
*599 wbs_dat_o[5]
*600 wbs_dat_o[6]
*601 wbs_dat_o[7]
*602 wbs_dat_o[8]
*603 wbs_dat_o[9]
*604 wbs_sel_i[0]
*605 wbs_sel_i[1]
*606 wbs_sel_i[2]
*607 wbs_sel_i[3]
*608 wbs_stb_i
*609 wbs_we_i
*610 _000_
*611 _001_
*612 _002_
*613 _003_
*614 _004_
*615 _005_
*616 _006_
*617 _007_
*618 _008_
*619 _009_
*620 _010_
*621 _011_
*622 _012_
*623 _013_
*624 _014_
*625 _015_
*626 _016_
*627 _017_
*628 _018_
*629 _019_
*630 _020_
*631 _021_
*632 _022_
*633 _023_
*634 _024_
*635 _025_
*636 _026_
*637 _027_
*638 _028_
*639 _029_
*640 _030_
*641 _031_
*642 _032_
*643 _033_
*644 _034_
*645 _035_
*646 _036_
*647 _037_
*648 _038_
*649 _039_
*650 _040_
*651 _041_
*652 _042_
*653 _043_
*654 _044_
*655 _045_
*656 _046_
*657 _047_
*658 _048_
*659 _049_
*660 _050_
*661 _051_
*662 _052_
*663 _053_
*664 _054_
*665 _055_
*666 _056_
*667 _057_
*668 _058_
*669 _059_
*670 _060_
*671 _061_
*672 _062_
*673 _063_
*674 _064_
*675 _065_
*676 _066_
*677 _067_
*678 _068_
*679 _069_
*680 _070_
*681 _071_
*682 _072_
*683 _073_
*684 _074_
*685 _075_
*686 _076_
*687 _077_
*688 _078_
*689 _079_
*690 _080_
*691 _081_
*692 _082_
*693 _083_
*694 _084_
*695 _085_
*696 _086_
*697 _087_
*698 _088_
*699 _089_
*700 _090_
*701 _091_
*702 _092_
*703 _093_
*704 _094_
*705 _095_
*706 _096_
*707 _097_
*708 _098_
*709 _099_
*710 _100_
*711 _101_
*712 _102_
*713 _103_
*714 _104_
*715 _105_
*716 _106_
*717 _107_
*718 _108_
*719 _109_
*720 _110_
*721 _111_
*722 _112_
*723 _113_
*724 _114_
*725 _115_
*726 _116_
*727 _117_
*728 _118_
*729 _119_
*730 _120_
*731 _121_
*732 _122_
*733 _123_
*734 _124_
*735 _125_
*736 _126_
*737 _127_
*738 _128_
*739 _129_
*740 _130_
*741 _131_
*742 _132_
*743 _133_
*744 _134_
*745 _135_
*746 _136_
*747 _137_
*748 _138_
*749 _139_
*750 _140_
*751 _141_
*752 _142_
*753 _143_
*754 _144_
*755 _145_
*756 _146_
*757 _147_
*758 _148_
*759 _149_
*760 _150_
*761 _151_
*762 _152_
*763 _153_
*764 _154_
*765 _155_
*766 _156_
*767 _157_
*768 _158_
*769 _159_
*770 _160_
*771 _161_
*772 _162_
*773 _163_
*774 _164_
*775 _165_
*776 _166_
*777 _167_
*778 _168_
*779 _169_
*780 _170_
*781 _171_
*782 _172_
*783 _173_
*784 _174_
*785 _175_
*786 _176_
*787 _177_
*788 _178_
*789 _179_
*790 _180_
*791 _181_
*792 _182_
*793 _183_
*794 _184_
*795 _185_
*796 _186_
*797 _187_
*798 _188_
*799 _189_
*800 _190_
*801 _191_
*802 _192_
*803 _193_
*804 _194_
*805 _195_
*806 _196_
*807 _197_
*808 _198_
*809 _199_
*810 _200_
*811 _201_
*812 _202_
*813 _203_
*814 _204_
*815 _205_
*816 _206_
*817 _207_
*818 _208_
*819 _209_
*820 _210_
*821 _211_
*822 _212_
*823 _213_
*824 _214_
*825 _215_
*826 _216_
*827 _217_
*828 _218_
*829 _219_
*830 _220_
*831 _221_
*832 _222_
*833 _223_
*834 _224_
*835 _225_
*836 _226_
*837 _227_
*838 _228_
*839 _229_
*840 _230_
*841 _231_
*842 _232_
*843 _233_
*844 _234_
*845 _235_
*846 _236_
*847 _237_
*848 _238_
*849 _239_
*850 _240_
*851 _241_
*852 _242_
*853 _243_
*854 _244_
*855 _245_
*856 _246_
*857 _247_
*858 _248_
*859 _249_
*860 _250_
*861 _251_
*862 _252_
*863 _253_
*864 _254_
*865 _255_
*866 _256_
*867 _257_
*868 _258_
*869 _259_
*870 _260_
*871 _261_
*872 _262_
*873 _263_
*874 _264_
*875 _265_
*876 _266_
*877 _267_
*878 _268_
*879 _269_
*880 _270_
*881 _271_
*882 _272_
*883 _273_
*884 _274_
*885 _275_
*886 _276_
*887 _277_
*888 _278_
*889 _279_
*890 _280_
*891 _281_
*892 _282_
*893 _283_
*894 _284_
*895 _285_
*896 _286_
*897 _287_
*898 _288_
*899 _289_
*900 _290_
*901 _291_
*902 _292_
*903 _293_
*904 _294_
*905 _295_
*906 _296_
*907 _297_
*908 _298_
*909 _299_
*910 _300_
*911 _301_
*912 _302_
*913 _303_
*914 _304_
*915 _305_
*916 _306_
*917 _307_
*918 _308_
*919 _309_
*920 _310_
*921 _311_
*922 _312_
*923 _313_
*924 _314_
*925 _315_
*926 _316_
*927 _317_
*928 _318_
*929 _319_
*930 _320_
*931 _321_
*932 _322_
*933 _323_
*934 _324_
*935 _325_
*936 _326_
*937 _327_
*938 _328_
*939 _329_
*940 _330_
*941 _331_
*942 _332_
*943 _333_
*944 _334_
*945 _335_
*946 clknet_0_net264
*947 clknet_0_net265
*948 clknet_0_net271
*949 clknet_0_net272
*950 clknet_0_net275
*951 clknet_0_net276
*952 clknet_0_net277
*953 clknet_0_net278
*954 clknet_0_net279
*955 clknet_0_net280
*956 clknet_0_net285
*957 clknet_1_0__leaf_net264
*958 clknet_1_0__leaf_net265
*959 clknet_1_0__leaf_net271
*960 clknet_1_0__leaf_net272
*961 clknet_1_0__leaf_net275
*962 clknet_1_0__leaf_net276
*963 clknet_1_0__leaf_net277
*964 clknet_1_0__leaf_net278
*965 clknet_1_0__leaf_net279
*966 clknet_1_0__leaf_net280
*967 clknet_1_0__leaf_net285
*968 clknet_1_1__leaf_net264
*969 clknet_1_1__leaf_net265
*970 clknet_1_1__leaf_net271
*971 clknet_1_1__leaf_net272
*972 clknet_1_1__leaf_net275
*973 clknet_1_1__leaf_net276
*974 clknet_1_1__leaf_net277
*975 clknet_1_1__leaf_net278
*976 clknet_1_1__leaf_net279
*977 clknet_1_1__leaf_net280
*978 clknet_1_1__leaf_net285
*979 net1
*980 net10
*981 net100
*982 net101
*983 net102
*984 net103
*985 net104
*986 net105
*987 net106
*988 net107
*989 net108
*990 net109
*991 net11
*992 net110
*993 net111
*994 net112
*995 net113
*996 net114
*997 net115
*998 net116
*999 net117
*1000 net118
*1001 net119
*1002 net12
*1003 net120
*1004 net121
*1005 net122
*1006 net123
*1007 net124
*1008 net125
*1009 net126
*1010 net127
*1011 net128
*1012 net129
*1013 net13
*1014 net130
*1015 net131
*1016 net132
*1017 net133
*1018 net134
*1019 net135
*1020 net136
*1021 net137
*1022 net138
*1023 net139
*1024 net14
*1025 net140
*1026 net141
*1027 net142
*1028 net143
*1029 net144
*1030 net145
*1031 net146
*1032 net147
*1033 net148
*1034 net149
*1035 net15
*1036 net150
*1037 net151
*1038 net152
*1039 net153
*1040 net154
*1041 net155
*1042 net156
*1043 net157
*1044 net158
*1045 net159
*1046 net16
*1047 net160
*1048 net161
*1049 net162
*1050 net163
*1051 net164
*1052 net165
*1053 net166
*1054 net167
*1055 net168
*1056 net169
*1057 net17
*1058 net170
*1059 net171
*1060 net172
*1061 net173
*1062 net174
*1063 net175
*1064 net176
*1065 net177
*1066 net178
*1067 net179
*1068 net18
*1069 net180
*1070 net181
*1071 net182
*1072 net183
*1073 net184
*1074 net185
*1075 net186
*1076 net187
*1077 net188
*1078 net189
*1079 net19
*1080 net190
*1081 net191
*1082 net192
*1083 net193
*1084 net194
*1085 net195
*1086 net196
*1087 net197
*1088 net198
*1089 net199
*1090 net2
*1091 net20
*1092 net200
*1093 net201
*1094 net202
*1095 net203
*1096 net204
*1097 net205
*1098 net206
*1099 net207
*1100 net208
*1101 net209
*1102 net21
*1103 net210
*1104 net211
*1105 net212
*1106 net213
*1107 net214
*1108 net215
*1109 net216
*1110 net217
*1111 net218
*1112 net219
*1113 net22
*1114 net220
*1115 net221
*1116 net222
*1117 net223
*1118 net224
*1119 net225
*1120 net226
*1121 net227
*1122 net228
*1123 net229
*1124 net23
*1125 net230
*1126 net231
*1127 net232
*1128 net233
*1129 net234
*1130 net235
*1131 net236
*1132 net237
*1133 net238
*1134 net239
*1135 net24
*1136 net240
*1137 net241
*1138 net242
*1139 net243
*1140 net244
*1141 net245
*1142 net246
*1143 net247
*1144 net248
*1145 net249
*1146 net25
*1147 net250
*1148 net251
*1149 net252
*1150 net253
*1151 net254
*1152 net255
*1153 net256
*1154 net257
*1155 net258
*1156 net259
*1157 net26
*1158 net260
*1159 net261
*1160 net262
*1161 net263
*1162 net264
*1163 net265
*1164 net266
*1165 net267
*1166 net268
*1167 net269
*1168 net27
*1169 net270
*1170 net271
*1171 net272
*1172 net273
*1173 net274
*1174 net275
*1175 net276
*1176 net277
*1177 net278
*1178 net279
*1179 net28
*1180 net280
*1181 net281
*1182 net282
*1183 net283
*1184 net284
*1185 net285
*1186 net286
*1187 net287
*1188 net288
*1189 net289
*1190 net29
*1191 net290
*1192 net291
*1193 net292
*1194 net293
*1195 net294
*1196 net295
*1197 net296
*1198 net297
*1199 net298
*1200 net3
*1201 net30
*1202 net31
*1203 net32
*1204 net33
*1205 net34
*1206 net35
*1207 net36
*1208 net37
*1209 net38
*1210 net39
*1211 net4
*1212 net40
*1213 net41
*1214 net42
*1215 net421
*1216 net422
*1217 net423
*1218 net424
*1219 net425
*1220 net426
*1221 net427
*1222 net428
*1223 net429
*1224 net43
*1225 net430
*1226 net431
*1227 net432
*1228 net433
*1229 net434
*1230 net435
*1231 net436
*1232 net437
*1233 net438
*1234 net439
*1235 net44
*1236 net440
*1237 net441
*1238 net442
*1239 net443
*1240 net444
*1241 net445
*1242 net446
*1243 net447
*1244 net448
*1245 net449
*1246 net45
*1247 net450
*1248 net451
*1249 net452
*1250 net453
*1251 net454
*1252 net455
*1253 net456
*1254 net457
*1255 net46
*1256 net47
*1257 net48
*1258 net49
*1259 net5
*1260 net50
*1261 net51
*1262 net52
*1263 net53
*1264 net54
*1265 net55
*1266 net56
*1267 net57
*1268 net58
*1269 net59
*1270 net6
*1271 net60
*1272 net61
*1273 net62
*1274 net63
*1275 net64
*1276 net65
*1277 net66
*1278 net67
*1279 net68
*1280 net69
*1281 net7
*1282 net70
*1283 net71
*1284 net72
*1285 net73
*1286 net74
*1287 net75
*1288 net76
*1289 net77
*1290 net78
*1291 net79
*1292 net8
*1293 net80
*1294 net81
*1295 net82
*1296 net83
*1297 net84
*1298 net85
*1299 net86
*1300 net87
*1301 net88
*1302 net89
*1303 net9
*1304 net90
*1305 net91
*1306 net92
*1307 net93
*1308 net94
*1309 net95
*1310 net96
*1311 net97
*1312 net98
*1313 net99
*1314 ANTENNA_UUT\.U_1T1R_16x16_DUMMY_BL\[0\]
*1315 ANTENNA_UUT\.U_1T1R_16x16_DUMMY_BL\[10\]
*1316 ANTENNA_UUT\.U_1T1R_16x16_DUMMY_BL\[11\]
*1317 ANTENNA_UUT\.U_1T1R_16x16_DUMMY_BL\[12\]
*1318 ANTENNA_UUT\.U_1T1R_16x16_DUMMY_BL\[13\]
*1319 ANTENNA_UUT\.U_1T1R_16x16_DUMMY_BL\[14\]
*1320 ANTENNA_UUT\.U_1T1R_16x16_DUMMY_BL\[15\]
*1321 ANTENNA_UUT\.U_1T1R_16x16_DUMMY_BL\[1\]
*1322 ANTENNA_UUT\.U_1T1R_16x16_DUMMY_BL\[2\]
*1323 ANTENNA_UUT\.U_1T1R_16x16_DUMMY_BL\[3\]
*1324 ANTENNA_UUT\.U_1T1R_16x16_DUMMY_BL\[4\]
*1325 ANTENNA_UUT\.U_1T1R_16x16_DUMMY_BL\[5\]
*1326 ANTENNA_UUT\.U_1T1R_16x16_DUMMY_BL\[6\]
*1327 ANTENNA_UUT\.U_1T1R_16x16_DUMMY_BL\[7\]
*1328 ANTENNA_UUT\.U_1T1R_16x16_DUMMY_BL\[8\]
*1329 ANTENNA_UUT\.U_1T1R_16x16_DUMMY_BL\[9\]
*1330 ANTENNA_UUT\.U_1T1R_16x16_DUMMY_SL\[0\]
*1331 ANTENNA_UUT\.U_1T1R_16x16_DUMMY_SL\[10\]
*1332 ANTENNA_UUT\.U_1T1R_16x16_DUMMY_SL\[11\]
*1333 ANTENNA_UUT\.U_1T1R_16x16_DUMMY_SL\[12\]
*1334 ANTENNA_UUT\.U_1T1R_16x16_DUMMY_SL\[13\]
*1335 ANTENNA_UUT\.U_1T1R_16x16_DUMMY_SL\[14\]
*1336 ANTENNA_UUT\.U_1T1R_16x16_DUMMY_SL\[15\]
*1337 ANTENNA_UUT\.U_1T1R_16x16_DUMMY_SL\[1\]
*1338 ANTENNA_UUT\.U_1T1R_16x16_DUMMY_SL\[2\]
*1339 ANTENNA_UUT\.U_1T1R_16x16_DUMMY_SL\[3\]
*1340 ANTENNA_UUT\.U_1T1R_16x16_DUMMY_SL\[4\]
*1341 ANTENNA_UUT\.U_1T1R_16x16_DUMMY_SL\[5\]
*1342 ANTENNA_UUT\.U_1T1R_16x16_DUMMY_SL\[6\]
*1343 ANTENNA_UUT\.U_1T1R_16x16_DUMMY_SL\[7\]
*1344 ANTENNA_UUT\.U_1T1R_16x16_DUMMY_SL\[8\]
*1345 ANTENNA_UUT\.U_1T1R_16x16_DUMMY_SL\[9\]
*1346 ANTENNA_UUT\.U_1T1R_16x16_DUMMY_WL\[0\]
*1347 ANTENNA_UUT\.U_1T1R_16x16_DUMMY_WL\[10\]
*1348 ANTENNA_UUT\.U_1T1R_16x16_DUMMY_WL\[11\]
*1349 ANTENNA_UUT\.U_1T1R_16x16_DUMMY_WL\[12\]
*1350 ANTENNA_UUT\.U_1T1R_16x16_DUMMY_WL\[13\]
*1351 ANTENNA_UUT\.U_1T1R_16x16_DUMMY_WL\[14\]
*1352 ANTENNA_UUT\.U_1T1R_16x16_DUMMY_WL\[15\]
*1353 ANTENNA_UUT\.U_1T1R_16x16_DUMMY_WL\[1\]
*1354 ANTENNA_UUT\.U_1T1R_16x16_DUMMY_WL\[2\]
*1355 ANTENNA_UUT\.U_1T1R_16x16_DUMMY_WL\[3\]
*1356 ANTENNA_UUT\.U_1T1R_16x16_DUMMY_WL\[4\]
*1357 ANTENNA_UUT\.U_1T1R_16x16_DUMMY_WL\[5\]
*1358 ANTENNA_UUT\.U_1T1R_16x16_DUMMY_WL\[6\]
*1359 ANTENNA_UUT\.U_1T1R_16x16_DUMMY_WL\[7\]
*1360 ANTENNA_UUT\.U_1T1R_16x16_DUMMY_WL\[8\]
*1361 ANTENNA_UUT\.U_1T1R_16x16_DUMMY_WL\[9\]
*1362 ANTENNA__337__A
*1363 ANTENNA__338__A0
*1364 ANTENNA__338__A1
*1365 ANTENNA__338__S
*1366 ANTENNA__340__A0
*1367 ANTENNA__340__A1
*1368 ANTENNA__340__S
*1369 ANTENNA__342__A
*1370 ANTENNA__343__A
*1371 ANTENNA__344__A
*1372 ANTENNA__345__B
*1373 ANTENNA__347__A
*1374 ANTENNA__348__A
*1375 ANTENNA__349__A_N
*1376 ANTENNA__349__B
*1377 ANTENNA__351__B
*1378 ANTENNA__352__A
*1379 ANTENNA__353__A
*1380 ANTENNA__354__A
*1381 ANTENNA__357__A
*1382 ANTENNA__357__B
*1383 ANTENNA__358__A1
*1384 ANTENNA__358__A2
*1385 ANTENNA__358__A3
*1386 ANTENNA__358__A4
*1387 ANTENNA__358__B1
*1388 ANTENNA__359__A1
*1389 ANTENNA__359__A2
*1390 ANTENNA__359__A3
*1391 ANTENNA__359__A4
*1392 ANTENNA__359__B1
*1393 ANTENNA__360__A1
*1394 ANTENNA__360__A2
*1395 ANTENNA__360__A3
*1396 ANTENNA__360__A4
*1397 ANTENNA__360__B1
*1398 ANTENNA__361__A
*1399 ANTENNA__362__A1
*1400 ANTENNA__362__A2
*1401 ANTENNA__362__A3
*1402 ANTENNA__362__A4
*1403 ANTENNA__362__B1
*1404 ANTENNA__364__A1
*1405 ANTENNA__364__A2
*1406 ANTENNA__364__A3
*1407 ANTENNA__364__A4
*1408 ANTENNA__364__B1
*1409 ANTENNA__365__A1
*1410 ANTENNA__365__A2
*1411 ANTENNA__365__A3
*1412 ANTENNA__365__A4
*1413 ANTENNA__365__B1
*1414 ANTENNA__366__A1
*1415 ANTENNA__366__A2
*1416 ANTENNA__366__A3
*1417 ANTENNA__366__A4
*1418 ANTENNA__366__B1
*1419 ANTENNA__367__A1
*1420 ANTENNA__367__A2
*1421 ANTENNA__367__A3
*1422 ANTENNA__367__A4
*1423 ANTENNA__367__B1
*1424 ANTENNA__371__A
*1425 ANTENNA__372__A
*1426 ANTENNA__373__A1
*1427 ANTENNA__373__A2
*1428 ANTENNA__373__A3
*1429 ANTENNA__373__B2
*1430 ANTENNA__374__A
*1431 ANTENNA__375__A
*1432 ANTENNA__376__B1
*1433 ANTENNA__377__A
*1434 ANTENNA__378__A
*1435 ANTENNA__378__B
*1436 ANTENNA__379__A
*1437 ANTENNA__379__B
*1438 ANTENNA__380__A
*1439 ANTENNA__382__A
*1440 ANTENNA__382__B
*1441 ANTENNA__383__A1
*1442 ANTENNA__383__B2
*1443 ANTENNA__384__A
*1444 ANTENNA__385__B1_N
*1445 ANTENNA__386__A
*1446 ANTENNA__387__A
*1447 ANTENNA__387__B
*1448 ANTENNA__387__C
*1449 ANTENNA__388__A1
*1450 ANTENNA__388__A2
*1451 ANTENNA__388__B1
*1452 ANTENNA__390__A
*1453 ANTENNA__390__B
*1454 ANTENNA__390__C_N
*1455 ANTENNA__391__A
*1456 ANTENNA__391__B
*1457 ANTENNA__393__A
*1458 ANTENNA__394__A
*1459 ANTENNA__394__B
*1460 ANTENNA__394__C
*1461 ANTENNA__394__D
*1462 ANTENNA__396__A1
*1463 ANTENNA__396__A2
*1464 ANTENNA__396__A3
*1465 ANTENNA__396__B1
*1466 ANTENNA__398__A
*1467 ANTENNA__398__B
*1468 ANTENNA__399__A1
*1469 ANTENNA__399__B2
*1470 ANTENNA__400__B1
*1471 ANTENNA__401__A
*1472 ANTENNA__402__B1
*1473 ANTENNA__405__A
*1474 ANTENNA__406__A1
*1475 ANTENNA__406__B2
*1476 ANTENNA__407__A
*1477 ANTENNA__408__B1_N
*1478 ANTENNA__409__A
*1479 ANTENNA__410__B1
*1480 ANTENNA__412__A
*1481 ANTENNA__412__B
*1482 ANTENNA__413__A1
*1483 ANTENNA__413__B2
*1484 ANTENNA__414__B1
*1485 ANTENNA__415__A
*1486 ANTENNA__415__B
*1487 ANTENNA__415__C
*1488 ANTENNA__417__A1
*1489 ANTENNA__417__B1
*1490 ANTENNA__418__A
*1491 ANTENNA__418__B
*1492 ANTENNA__418__C_N
*1493 ANTENNA__419__A
*1494 ANTENNA__419__B
*1495 ANTENNA__421__A
*1496 ANTENNA__425__A
*1497 ANTENNA__426__A
*1498 ANTENNA__427__A1
*1499 ANTENNA__427__B1
*1500 ANTENNA__427__B2
*1501 ANTENNA__428__B1_N
*1502 ANTENNA__429__B
*1503 ANTENNA__431__A
*1504 ANTENNA__432__A
*1505 ANTENNA__434__A
*1506 ANTENNA__434__B
*1507 ANTENNA__435__B
*1508 ANTENNA__436__A1
*1509 ANTENNA__436__B2
*1510 ANTENNA__438__A
*1511 ANTENNA__439__A1
*1512 ANTENNA__439__B1
*1513 ANTENNA__440__A
*1514 ANTENNA__440__B
*1515 ANTENNA__444__A
*1516 ANTENNA__444__B
*1517 ANTENNA__446__A1
*1518 ANTENNA__446__B1
*1519 ANTENNA__446__B2
*1520 ANTENNA__447__B1_N
*1521 ANTENNA__448__A
*1522 ANTENNA__449__A1
*1523 ANTENNA__451__A
*1524 ANTENNA__452__A1
*1525 ANTENNA__452__B1
*1526 ANTENNA__452__B2
*1527 ANTENNA__453__B1_N
*1528 ANTENNA__455__B1
*1529 ANTENNA__456__A
*1530 ANTENNA__456__B
*1531 ANTENNA__456__C_N
*1532 ANTENNA__457__A
*1533 ANTENNA__459__A
*1534 ANTENNA__460__B1_N
*1535 ANTENNA__462__A
*1536 ANTENNA__463__A1
*1537 ANTENNA__463__B1
*1538 ANTENNA__463__B2
*1539 ANTENNA__464__A2
*1540 ANTENNA__464__B1_N
*1541 ANTENNA__465__A
*1542 ANTENNA__465__C
*1543 ANTENNA__467__A2
*1544 ANTENNA__467__B1
*1545 ANTENNA__468__A
*1546 ANTENNA__469__A
*1547 ANTENNA__469__C_N
*1548 ANTENNA__470__A
*1549 ANTENNA__471__B1
*1550 ANTENNA__472__A
*1551 ANTENNA__474__A1
*1552 ANTENNA__475__A1
*1553 ANTENNA__477__A
*1554 ANTENNA__477__B
*1555 ANTENNA__478__A1
*1556 ANTENNA__478__B1
*1557 ANTENNA__478__B2
*1558 ANTENNA__479__A
*1559 ANTENNA__480__B1_N
*1560 ANTENNA__481__A
*1561 ANTENNA__481__B
*1562 ANTENNA__483__A1
*1563 ANTENNA__483__B1
*1564 ANTENNA__485__A
*1565 ANTENNA__485__B
*1566 ANTENNA__486__A1
*1567 ANTENNA__486__B1
*1568 ANTENNA__486__B2
*1569 ANTENNA__487__B1_N
*1570 ANTENNA__488__A
*1571 ANTENNA__489__A
*1572 ANTENNA__490__A
*1573 ANTENNA__490__B
*1574 ANTENNA__491__A
*1575 ANTENNA__492__A
*1576 ANTENNA__493__A
*1577 ANTENNA__495__A1
*1578 ANTENNA__496__A1
*1579 ANTENNA__496__A3
*1580 ANTENNA__497__B1
*1581 ANTENNA__499__A
*1582 ANTENNA__499__B
*1583 ANTENNA__500__A
*1584 ANTENNA__500__B
*1585 ANTENNA__503__A1
*1586 ANTENNA__503__B1
*1587 ANTENNA__504__A
*1588 ANTENNA__504__B
*1589 ANTENNA__505__A1
*1590 ANTENNA__505__B1
*1591 ANTENNA__505__B2
*1592 ANTENNA__506__B1_N
*1593 ANTENNA__510__A
*1594 ANTENNA__510__B
*1595 ANTENNA__511__A1
*1596 ANTENNA__511__B1
*1597 ANTENNA__511__B2
*1598 ANTENNA__513__A
*1599 ANTENNA__514__B
*1600 ANTENNA__516__B1
*1601 ANTENNA__517__A
*1602 ANTENNA__518__A
*1603 ANTENNA__518__B
*1604 ANTENNA__519__A1
*1605 ANTENNA__519__B1
*1606 ANTENNA__519__B2
*1607 ANTENNA__520__B1_N
*1608 ANTENNA__521__A
*1609 ANTENNA__522__A1
*1610 ANTENNA__522__B1
*1611 ANTENNA__524__A
*1612 ANTENNA__524__B
*1613 ANTENNA__525__A1
*1614 ANTENNA__525__B1
*1615 ANTENNA__525__B2
*1616 ANTENNA__526__B1_N
*1617 ANTENNA__527__A
*1618 ANTENNA__527__B
*1619 ANTENNA__528__A
*1620 ANTENNA__528__B
*1621 ANTENNA__529__A
*1622 ANTENNA__531__A1
*1623 ANTENNA__531__C1
*1624 ANTENNA__532__A
*1625 ANTENNA__532__B
*1626 ANTENNA__533__A1
*1627 ANTENNA__533__B1
*1628 ANTENNA__533__B2
*1629 ANTENNA__534__A
*1630 ANTENNA__535__B1_N
*1631 ANTENNA__536__A
*1632 ANTENNA__539__A
*1633 ANTENNA__539__B
*1634 ANTENNA__540__A1
*1635 ANTENNA__540__B1
*1636 ANTENNA__540__B2
*1637 ANTENNA__542__A
*1638 ANTENNA__543__B
*1639 ANTENNA__545__B1
*1640 ANTENNA__546__A
*1641 ANTENNA__547__A
*1642 ANTENNA__547__B
*1643 ANTENNA__548__A1
*1644 ANTENNA__548__B1
*1645 ANTENNA__548__B2
*1646 ANTENNA__549__B1_N
*1647 ANTENNA__550__A
*1648 ANTENNA__551__A
*1649 ANTENNA__551__B
*1650 ANTENNA__554__A1
*1651 ANTENNA__556__A
*1652 ANTENNA__557__A
*1653 ANTENNA__557__B
*1654 ANTENNA__558__A
*1655 ANTENNA__559__A1
*1656 ANTENNA__559__B1
*1657 ANTENNA__559__B2
*1658 ANTENNA__560__B1_N
*1659 ANTENNA__561__A
*1660 ANTENNA__561__B
*1661 ANTENNA__562__A
*1662 ANTENNA__562__B
*1663 ANTENNA__562__C
*1664 ANTENNA__564__A1
*1665 ANTENNA__565__A
*1666 ANTENNA__565__B
*1667 ANTENNA__566__A1
*1668 ANTENNA__566__B1
*1669 ANTENNA__566__B2
*1670 ANTENNA__567__B1_N
*1671 ANTENNA__570__A
*1672 ANTENNA__570__B
*1673 ANTENNA__571__A1
*1674 ANTENNA__571__B1
*1675 ANTENNA__571__B2
*1676 ANTENNA__573__A
*1677 ANTENNA__574__A
*1678 ANTENNA__575__A
*1679 ANTENNA__575__B
*1680 ANTENNA__576__A1
*1681 ANTENNA__576__B1
*1682 ANTENNA__576__B2
*1683 ANTENNA__578__A
*1684 ANTENNA__580__B
*1685 ANTENNA__580__C
*1686 ANTENNA__582__A2
*1687 ANTENNA__582__B1
*1688 ANTENNA__584__A
*1689 ANTENNA__584__B
*1690 ANTENNA__585__A1
*1691 ANTENNA__585__A2
*1692 ANTENNA__585__B1
*1693 ANTENNA__585__B2
*1694 ANTENNA__586__B1
*1695 ANTENNA__587__A
*1696 ANTENNA__588__A1
*1697 ANTENNA__589__A1
*1698 ANTENNA__590__A
*1699 ANTENNA__590__B
*1700 ANTENNA__591__A1
*1701 ANTENNA__591__B1
*1702 ANTENNA__591__B2
*1703 ANTENNA__592__B1_N
*1704 ANTENNA__593__A
*1705 ANTENNA__593__B
*1706 ANTENNA__593__C_N
*1707 ANTENNA__594__A1
*1708 ANTENNA__594__B1
*1709 ANTENNA__595__A1
*1710 ANTENNA__596__A1_N
*1711 ANTENNA__596__A2_N
*1712 ANTENNA__597__B1
*1713 ANTENNA__598__A
*1714 ANTENNA__598__C
*1715 ANTENNA__599__A1
*1716 ANTENNA__599__B1
*1717 ANTENNA__600__A
*1718 ANTENNA__601__A1
*1719 ANTENNA__601__B1
*1720 ANTENNA__601__B2
*1721 ANTENNA__603__A_N
*1722 ANTENNA__605__A0
*1723 ANTENNA__605__A1
*1724 ANTENNA__605__S
*1725 ANTENNA__607__A0
*1726 ANTENNA__607__A1
*1727 ANTENNA__607__S
*1728 ANTENNA__609__A0
*1729 ANTENNA__609__A1
*1730 ANTENNA__609__S
*1731 ANTENNA__611__A0
*1732 ANTENNA__611__A1
*1733 ANTENNA__611__S
*1734 ANTENNA__613__A
*1735 ANTENNA__614__A
*1736 ANTENNA__615__A1
*1737 ANTENNA__615__S
*1738 ANTENNA__617__A0
*1739 ANTENNA__617__A1
*1740 ANTENNA__617__S
*1741 ANTENNA__619__A0